<?xml version="1.0" encoding="UTF-8"?>

<!-- generated on 2026-02-16T21:22:40.526254+00:00 by Eclipse SUMO duarouter 1.26.0
<duarouterConfiguration xmlns:xsi="http://www.w3.org/2001/XMLSchema-instance" xsi:noNamespaceSchemaLocation="http://sumo.dlr.de/xsd/duarouterConfiguration.xsd">

    <input>
        <net-file value="osm.net.xml.gz"/>
        <route-files value="random_trips_peak_hour.rou.xml"/>
    </input>

    <output>
        <output-file value="routes.rou.xml"/>
        <vtype-output value="car"/>
        <alternatives-output value="NUL"/>
    </output>

    <time>
        <begin value="25200.0"/>
        <end value="36000.0"/>
    </time>

    <report>
        <no-warnings value="true"/>
        <ignore-errors value="true"/>
        <no-step-log value="true"/>
    </report>

</duarouterConfiguration>
-->

<routes xmlns:xsi="http://www.w3.org/2001/XMLSchema-instance" xsi:noNamespaceSchemaLocation="http://sumo.dlr.de/xsd/routes_file.xsd">
</routes>
