<?xml version="1.0" encoding="UTF-8"?>

<routes>
    <vType id="car" accel="2.6" decel="4.5" sigma="0.5" length="5.0" minGap="3.5" maxSpeed="40" guiShape="passenger"/>
</routes>
