<?xml version="1.0" encoding="UTF-8"?>

<routes xmlns:xsi="http://www.w3.org/2001/XMLSchema-instance" xsi:noNamespaceSchemaLocation="http://sumo.dlr.de/xsd/routes_file.xsd">

    <vType id="car_town" accel="2.6" decel="4.5" sigma="0.5" length="5.0" minGap="2.5" maxSpeed="30" guiShape="passenger"/>

    <route id="bali-bali-goldenIsland" edges="-312266114#2 -269002813 -617128762 -105067707#6 -55825090 -96489720#1 96489707#2 -312085875#3 96489711#1 -96489719#3 -105068385#0 55825090 105067707#0 617128762 269002813 903454651"/>
    <route id="bali-bali-long" edges="-312266114#2 -269002813 27405591#0 27405591#1 269097661#0 -27405590#7 -27405590#6 -27405590#1 105067707#0 617128762 269002813 903454651"/>
    <route id="bAndQ-shannon-orenge" edges="-1018306737 -269002814#7 -165655881 -578973711 -55825089 -617128762 -105067707#6 103330669#0 -132608092#2"/>
    <route id="bAndQ-bAndq-orenge" edges="-1018306737 -269002814#7 -165655881 -578973711 -55825089 -617128762 -105067707#6 103330669#0 132608093#0 1018300044#0 1018300044#1 104746990#0"/>
    <route id="bAndQ-bAndQ-long" edges="-1018306737 -269002814#7 -165655881 -578973711 -55825089 27405591#0 27405591#1 269097661#0 269097661#1 -105068385#3 -105068385#0 55825090 105067707#0 617128762 55825089 578973713#0 165655881 165655877#0 104746990#0"/>
    <route id="bAndQ-shannon-long" edges="-1018306737 -269002814#7 -165655881 -578973711 -55825089 27405591#0 27405591#1 269097661#0 269097661#1 -105068385#3 -105068385#0 55825090 105067707#0 617128762 55825089 578973713#0 165655881 165655877#0 -578973707 -1018300044#0 -132608093#5 -132608092#2"/>
    <route id="bali-shannon-short" edges="-312266114#2 -269002813 -617128762 -105067707#6 103330669#0 -132608092#2"/>
    <!-- West entry (Bali side) — West_Count / 3 routes per hour -->
    <!-- East entry (B&Q side) — East_Count / 4 routes per hour -->
    <!-- Time 0 = 07:00, each slot = 3600 s -->

    <!-- Flows sorted by global departure time (begin) to satisfy SUMO requirement -->
    <!-- begin = 0 (07:00) -->
    <flow id="f1_h0"  type="car_town" route="bali-bali-goldenIsland" begin="0"     end="3600"  vehsPerHour="119" departLane="best" departSpeed="max"/>
    <flow id="f2_h0"  type="car_town" route="bali-bali-long" begin="0"     end="3600"  vehsPerHour="119" departLane="best" departSpeed="max"/>
    <flow id="f7_h0"  type="car_town" route="bali-shannon-short" begin="0"     end="3600"  vehsPerHour="119" departLane="best" departSpeed="max"/>
    <flow id="f3_h0"  type="car_town" route="bAndQ-shannon-orenge" begin="0"     end="3600"  vehsPerHour="132" departLane="best" departSpeed="max"/>
    <flow id="f4_h0"  type="car_town" route="bAndQ-bAndq-orenge" begin="0"     end="3600"  vehsPerHour="132" departLane="best" departSpeed="max"/>
    <flow id="f5_h0"  type="car_town" route="bAndQ-bAndQ-long" begin="0"     end="3600"  vehsPerHour="132" departLane="best" departSpeed="max"/>
    <flow id="f6_h0"  type="car_town" route="bAndQ-shannon-long" begin="0"     end="3600"  vehsPerHour="132" departLane="best" departSpeed="max"/>

    <!-- begin = 3600 (08:00) -->
    <flow id="f1_h1"  type="car_town" route="bali-bali-goldenIsland" begin="3600"  end="7200"  vehsPerHour="184" departLane="best" departSpeed="max"/>
    <flow id="f2_h1"  type="car_town" route="bali-bali-long" begin="3600"  end="7200"  vehsPerHour="184" departLane="best" departSpeed="max"/>
    <flow id="f7_h1"  type="car_town" route="bali-shannon-short" begin="3600"  end="7200"  vehsPerHour="184" departLane="best" departSpeed="max"/>
    <flow id="f3_h1"  type="car_town" route="bAndQ-shannon-orenge" begin="3600"  end="7200"  vehsPerHour="247" departLane="best" departSpeed="max"/>
    <flow id="f4_h1"  type="car_town" route="bAndQ-bAndq-orenge" begin="3600"  end="7200"  vehsPerHour="247" departLane="best" departSpeed="max"/>
    <flow id="f5_h1"  type="car_town" route="bAndQ-bAndQ-long" begin="3600"  end="7200"  vehsPerHour="247" departLane="best" departSpeed="max"/>
    <flow id="f6_h1"  type="car_town" route="bAndQ-shannon-long" begin="3600"  end="7200"  vehsPerHour="247" departLane="best" departSpeed="max"/>

    <!-- begin = 7200 (09:00) -->
    <flow id="f1_h2"  type="car_town" route="bali-bali-goldenIsland" begin="7200"  end="10800" vehsPerHour="178" departLane="best" departSpeed="max"/>
    <flow id="f2_h2"  type="car_town" route="bali-bali-long" begin="7200"  end="10800" vehsPerHour="178" departLane="best" departSpeed="max"/>
    <flow id="f7_h2"  type="car_town" route="bali-shannon-short" begin="7200"  end="10800" vehsPerHour="178" departLane="best" departSpeed="max"/>
    <flow id="f3_h2"  type="car_town" route="bAndQ-shannon-orenge" begin="7200"  end="10800" vehsPerHour="189" departLane="best" departSpeed="max"/>
    <flow id="f4_h2"  type="car_town" route="bAndQ-bAndq-orenge" begin="7200"  end="10800" vehsPerHour="189" departLane="best" departSpeed="max"/>
    <flow id="f5_h2"  type="car_town" route="bAndQ-bAndQ-long" begin="7200"  end="10800" vehsPerHour="189" departLane="best" departSpeed="max"/>
    <flow id="f6_h2"  type="car_town" route="bAndQ-shannon-long" begin="7200"  end="10800" vehsPerHour="189" departLane="best" departSpeed="max"/>

    <!-- begin = 10800 (10:00) -->
    <flow id="f1_h3"  type="car_town" route="bali-bali-goldenIsland" begin="10800" end="14400" vehsPerHour="170" departLane="best" departSpeed="max"/>
    <flow id="f2_h3"  type="car_town" route="bali-bali-long" begin="10800" end="14400" vehsPerHour="170" departLane="best" departSpeed="max"/>
    <flow id="f7_h3"  type="car_town" route="bali-shannon-short" begin="10800" end="14400" vehsPerHour="170" departLane="best" departSpeed="max"/>
    <flow id="f3_h3"  type="car_town" route="bAndQ-shannon-orenge" begin="10800" end="14400" vehsPerHour="153" departLane="best" departSpeed="max"/>
    <flow id="f4_h3"  type="car_town" route="bAndQ-bAndq-orenge" begin="10800" end="14400" vehsPerHour="153" departLane="best" departSpeed="max"/>
    <flow id="f5_h3"  type="car_town" route="bAndQ-bAndQ-long" begin="10800" end="14400" vehsPerHour="153" departLane="best" departSpeed="max"/>
    <flow id="f6_h3"  type="car_town" route="bAndQ-shannon-long" begin="10800" end="14400" vehsPerHour="153" departLane="best" departSpeed="max"/>

    <!-- begin = 14400 (11:00) -->
    <flow id="f1_h4"  type="car_town" route="bali-bali-goldenIsland" begin="14400" end="18000" vehsPerHour="199" departLane="best" departSpeed="max"/>
    <flow id="f2_h4"  type="car_town" route="bali-bali-long" begin="14400" end="18000" vehsPerHour="199" departLane="best" departSpeed="max"/>
    <flow id="f7_h4"  type="car_town" route="bali-shannon-short" begin="14400" end="18000" vehsPerHour="199" departLane="best" departSpeed="max"/>
    <flow id="f3_h4"  type="car_town" route="bAndQ-shannon-orenge" begin="14400" end="18000" vehsPerHour="174" departLane="best" departSpeed="max"/>
    <flow id="f4_h4"  type="car_town" route="bAndQ-bAndq-orenge" begin="14400" end="18000" vehsPerHour="174" departLane="best" departSpeed="max"/>
    <flow id="f5_h4"  type="car_town" route="bAndQ-bAndQ-long" begin="14400" end="18000" vehsPerHour="174" departLane="best" departSpeed="max"/>
    <flow id="f6_h4"  type="car_town" route="bAndQ-shannon-long" begin="14400" end="18000" vehsPerHour="174" departLane="best" departSpeed="max"/>

    <!-- begin = 18000 (12:00) -->
    <flow id="f1_h5"  type="car_town" route="bali-bali-goldenIsland" begin="18000" end="21600" vehsPerHour="246" departLane="best" departSpeed="max"/>
    <flow id="f2_h5"  type="car_town" route="bali-bali-long" begin="18000" end="21600" vehsPerHour="246" departLane="best" departSpeed="max"/>
    <flow id="f7_h5"  type="car_town" route="bali-shannon-short" begin="18000" end="21600" vehsPerHour="246" departLane="best" departSpeed="max"/>
    <flow id="f3_h5"  type="car_town" route="bAndQ-shannon-orenge" begin="18000" end="21600" vehsPerHour="202" departLane="best" departSpeed="max"/>
    <flow id="f4_h5"  type="car_town" route="bAndQ-bAndq-orenge" begin="18000" end="21600" vehsPerHour="202" departLane="best" departSpeed="max"/>
    <flow id="f5_h5"  type="car_town" route="bAndQ-bAndQ-long" begin="18000" end="21600" vehsPerHour="202" departLane="best" departSpeed="max"/>
    <flow id="f6_h5"  type="car_town" route="bAndQ-shannon-long" begin="18000" end="21600" vehsPerHour="202" departLane="best" departSpeed="max"/>

    <!-- begin = 21600 (13:00) -->
    <flow id="f1_h6"  type="car_town" route="bali-bali-goldenIsland" begin="21600" end="25200" vehsPerHour="271" departLane="best" departSpeed="max"/>
    <flow id="f2_h6"  type="car_town" route="bali-bali-long" begin="21600" end="25200" vehsPerHour="271" departLane="best" departSpeed="max"/>
    <flow id="f7_h6"  type="car_town" route="bali-shannon-short" begin="21600" end="25200" vehsPerHour="271" departLane="best" departSpeed="max"/>
    <flow id="f3_h6"  type="car_town" route="bAndQ-shannon-orenge" begin="21600" end="25200" vehsPerHour="213" departLane="best" departSpeed="max"/>
    <flow id="f4_h6"  type="car_town" route="bAndQ-bAndq-orenge" begin="21600" end="25200" vehsPerHour="213" departLane="best" departSpeed="max"/>
    <flow id="f5_h6"  type="car_town" route="bAndQ-bAndQ-long" begin="21600" end="25200" vehsPerHour="213" departLane="best" departSpeed="max"/>
    <flow id="f6_h6"  type="car_town" route="bAndQ-shannon-long" begin="21600" end="25200" vehsPerHour="213" departLane="best" departSpeed="max"/>

    <!-- begin = 25200 (14:00) -->
    <flow id="f1_h7"  type="car_town" route="bali-bali-goldenIsland" begin="25200" end="28800" vehsPerHour="286" departLane="best" departSpeed="max"/>
    <flow id="f2_h7"  type="car_town" route="bali-bali-long" begin="25200" end="28800" vehsPerHour="286" departLane="best" departSpeed="max"/>
    <flow id="f7_h7"  type="car_town" route="bali-shannon-short" begin="25200" end="28800" vehsPerHour="286" departLane="best" departSpeed="max"/>
    <flow id="f3_h7"  type="car_town" route="bAndQ-shannon-orenge" begin="25200" end="28800" vehsPerHour="209" departLane="best" departSpeed="max"/>
    <flow id="f4_h7"  type="car_town" route="bAndQ-bAndq-orenge" begin="25200" end="28800" vehsPerHour="209" departLane="best" departSpeed="max"/>
    <flow id="f5_h7"  type="car_town" route="bAndQ-bAndQ-long" begin="25200" end="28800" vehsPerHour="209" departLane="best" departSpeed="max"/>
    <flow id="f6_h7"  type="car_town" route="bAndQ-shannon-long" begin="25200" end="28800" vehsPerHour="209" departLane="best" departSpeed="max"/>

    <!-- begin = 28800 (15:00) -->
    <flow id="f1_h8"  type="car_town" route="bali-bali-goldenIsland" begin="28800" end="32400" vehsPerHour="322" departLane="best" departSpeed="max"/>
    <flow id="f2_h8"  type="car_town" route="bali-bali-long" begin="28800" end="32400" vehsPerHour="322" departLane="best" departSpeed="max"/>
    <flow id="f7_h8"  type="car_town" route="bali-shannon-short" begin="28800" end="32400" vehsPerHour="322" departLane="best" departSpeed="max"/>
    <flow id="f3_h8"  type="car_town" route="bAndQ-shannon-orenge" begin="28800" end="32400" vehsPerHour="220" departLane="best" departSpeed="max"/>
    <flow id="f4_h8"  type="car_town" route="bAndQ-bAndq-orenge" begin="28800" end="32400" vehsPerHour="220" departLane="best" departSpeed="max"/>
    <flow id="f5_h8"  type="car_town" route="bAndQ-bAndQ-long" begin="28800" end="32400" vehsPerHour="220" departLane="best" departSpeed="max"/>
    <flow id="f6_h8"  type="car_town" route="bAndQ-shannon-long" begin="28800" end="32400" vehsPerHour="220" departLane="best" departSpeed="max"/>

    <!-- begin = 32400 (16:00) -->
    <flow id="f1_h9"  type="car_town" route="bali-bali-goldenIsland" begin="32400" end="36000" vehsPerHour="381" departLane="best" departSpeed="max"/>
    <flow id="f2_h9"  type="car_town" route="bali-bali-long" begin="32400" end="36000" vehsPerHour="381" departLane="best" departSpeed="max"/>
    <flow id="f7_h9"  type="car_town" route="bali-shannon-short" begin="32400" end="36000" vehsPerHour="381" departLane="best" departSpeed="max"/>
    <flow id="f3_h9"  type="car_town" route="bAndQ-shannon-orenge" begin="32400" end="36000" vehsPerHour="234" departLane="best" departSpeed="max"/>
    <flow id="f4_h9"  type="car_town" route="bAndQ-bAndq-orenge" begin="32400" end="36000" vehsPerHour="234" departLane="best" departSpeed="max"/>
    <flow id="f5_h9"  type="car_town" route="bAndQ-bAndQ-long" begin="32400" end="36000" vehsPerHour="234" departLane="best" departSpeed="max"/>
    <flow id="f6_h9"  type="car_town" route="bAndQ-shannon-long" begin="32400" end="36000" vehsPerHour="234" departLane="best" departSpeed="max"/>

    <!-- begin = 36000 (17:00) -->
    <flow id="f1_h10" type="car_town" route="bali-bali-goldenIsland" begin="36000" end="39600" vehsPerHour="376" departLane="best" departSpeed="max"/>
    <flow id="f2_h10" type="car_town" route="bali-bali-long" begin="36000" end="39600" vehsPerHour="376" departLane="best" departSpeed="max"/>
    <flow id="f7_h10" type="car_town" route="bali-shannon-short" begin="36000" end="39600" vehsPerHour="376" departLane="best" departSpeed="max"/>
    <flow id="f3_h10" type="car_town" route="bAndQ-shannon-orenge" begin="36000" end="39600" vehsPerHour="230" departLane="best" departSpeed="max"/>
    <flow id="f4_h10" type="car_town" route="bAndQ-bAndq-orenge" begin="36000" end="39600" vehsPerHour="230" departLane="best" departSpeed="max"/>
    <flow id="f5_h10" type="car_town" route="bAndQ-bAndQ-long" begin="36000" end="39600" vehsPerHour="230" departLane="best" departSpeed="max"/>
    <flow id="f6_h10" type="car_town" route="bAndQ-shannon-long" begin="36000" end="39600" vehsPerHour="230" departLane="best" departSpeed="max"/>

    <!-- begin = 39600 (18:00) -->
    <flow id="f1_h11" type="car_town" route="bali-bali-goldenIsland" begin="39600" end="43200" vehsPerHour="280" departLane="best" departSpeed="max"/>
    <flow id="f2_h11" type="car_town" route="bali-bali-long" begin="39600" end="43200" vehsPerHour="280" departLane="best" departSpeed="max"/>
    <flow id="f7_h11" type="car_town" route="bali-shannon-short" begin="39600" end="43200" vehsPerHour="280" departLane="best" departSpeed="max"/>
    <flow id="f3_h11" type="car_town" route="bAndQ-shannon-orenge" begin="39600" end="43200" vehsPerHour="182" departLane="best" departSpeed="max"/>
    <flow id="f4_h11" type="car_town" route="bAndQ-bAndq-orenge" begin="39600" end="43200" vehsPerHour="182" departLane="best" departSpeed="max"/>
    <flow id="f5_h11" type="car_town" route="bAndQ-bAndQ-long" begin="39600" end="43200" vehsPerHour="182" departLane="best" departSpeed="max"/>
    <flow id="f6_h11" type="car_town" route="bAndQ-shannon-long" begin="39600" end="43200" vehsPerHour="182" departLane="best" departSpeed="max"/>
    
</routes>
